Version 4
SHEET 1 1780 680
WIRE 320 -528 320 -576
WIRE 320 -384 320 -448
WIRE 320 -384 80 -384
WIRE 16 -352 16 -400
WIRE 1168 -336 1120 -336
WIRE 1264 -336 1168 -336
WIRE 1008 -320 976 -320
WIRE 1040 -320 1008 -320
WIRE 1168 -320 1168 -336
WIRE 1264 -320 1264 -336
WIRE 320 -304 320 -384
WIRE 976 -304 976 -320
WIRE -48 -288 -272 -288
WIRE 176 -288 176 -320
WIRE 80 -272 80 -384
WIRE 128 -272 80 -272
WIRE 256 -256 192 -256
WIRE -272 -240 -272 -288
WIRE 16 -240 16 -272
WIRE 128 -240 16 -240
WIRE 16 -224 16 -240
WIRE 1168 -224 1168 -240
WIRE 1264 -224 1264 -256
WIRE 1264 -224 1168 -224
WIRE 1168 -208 1168 -224
WIRE 160 -192 160 -224
WIRE 320 -192 320 -208
WIRE 320 -192 256 -192
WIRE 384 -192 320 -192
WIRE 848 -192 704 -192
WIRE 976 -192 976 -224
WIRE 256 -176 256 -192
WIRE 384 -176 384 -192
WIRE 1040 -144 1040 -320
WIRE 1040 -144 1008 -144
WIRE -272 -112 -272 -160
WIRE 1120 -112 1120 -336
WIRE 16 -96 16 -144
WIRE 752 -96 752 -128
WIRE 704 -80 704 -192
WIRE 720 -80 704 -80
WIRE 1088 -80 1040 -80
WIRE 1360 -80 1216 -80
WIRE 848 -64 848 -192
WIRE 848 -64 784 -64
WIRE 912 -64 848 -64
WIRE 384 -48 384 -112
WIRE 544 -48 384 -48
WIRE 592 -48 544 -48
WIRE 624 -48 592 -48
WIRE 720 -48 704 -48
WIRE 256 -32 256 -112
WIRE 256 -32 176 -32
WIRE 1008 -32 1008 -144
WIRE 1088 -32 1008 -32
WIRE -432 0 -464 0
WIRE 592 0 592 -48
WIRE 752 0 752 -32
WIRE -464 32 -464 0
WIRE -432 32 -432 0
WIRE -384 32 -432 32
WIRE -48 32 -48 -288
WIRE -48 32 -160 32
WIRE 912 32 912 16
WIRE 1040 32 1040 -80
WIRE 1040 32 912 32
WIRE 256 48 256 -32
WIRE 384 48 384 -48
WIRE 912 48 912 32
WIRE 1120 48 1120 0
WIRE 1136 48 1120 48
WIRE 1152 48 1152 0
WIRE 1152 48 1136 48
WIRE 1136 80 1136 48
WIRE -384 96 -464 96
WIRE 32 96 32 64
WIRE 592 112 592 64
WIRE 256 128 256 112
WIRE 320 128 256 128
WIRE 384 128 384 112
WIRE 384 128 320 128
WIRE 320 144 320 128
WIRE 912 144 912 128
WIRE -384 160 -560 160
WIRE -32 160 -160 160
WIRE 176 160 176 112
WIRE 128 176 96 176
WIRE -96 192 -128 192
WIRE 256 192 192 192
WIRE -96 208 -96 192
WIRE 32 208 32 176
WIRE 128 208 32 208
WIRE -384 224 -560 224
WIRE -128 224 -128 192
WIRE -128 224 -160 224
WIRE 32 224 32 208
WIRE 160 256 160 224
WIRE 320 272 320 240
WIRE 320 272 240 272
WIRE 96 288 96 176
WIRE 240 288 240 272
WIRE 240 288 96 288
WIRE 320 288 320 272
WIRE -464 320 -464 96
WIRE -32 320 -32 160
WIRE -32 320 -464 320
WIRE 32 320 32 304
WIRE -32 432 -32 320
WIRE 544 432 544 -48
WIRE 544 432 -32 432
FLAG -272 -112 0
FLAG -464 32 0
FLAG -96 272 0
FLAG -272 -288 VCC
FLAG -560 224 VCC
FLAG -560 160 Vsq
FLAG 592 112 0
FLAG 176 -32 Vsq
FLAG 160 -192 0
FLAG 320 -576 VCC
FLAG 16 -96 0
FLAG 16 -400 VCC
FLAG 160 256 0
FLAG 176 112 VCC
FLAG 320 368 0
FLAG 32 64 VCC
FLAG 32 320 0
FLAG 176 -320 VCC
FLAG 752 -128 VCC
FLAG 752 0 0
FLAG 1168 -208 0
FLAG 976 -192 0
FLAG 592 -48 Vtri
FLAG 1136 80 0
FLAG 912 144 0
FLAG 1008 -320 Vctrl
FLAG 1360 -80 Vout
SYMBOL Misc\\NE555 -272 128 R0
SYMATTR InstName U1
SYMBOL voltage -272 -256 R0
WINDOW 123 0 0 Left 0
WINDOW 39 0 0 Left 0
SYMATTR InstName V1
SYMATTR Value 12
SYMBOL cap -112 208 R0
SYMATTR InstName C1
SYMATTR Value 1n
SYMBOL pnp 256 -208 M180
SYMATTR InstName Q1
SYMATTR Value 2N3906
SYMBOL npn 256 144 R0
SYMATTR InstName Q2
SYMATTR Value 2N3904
SYMBOL diode 240 -176 R0
SYMATTR InstName D1
SYMATTR Value 1N4148
SYMBOL diode 368 -176 R0
SYMATTR InstName D2
SYMATTR Value 1N4148
SYMBOL diode 240 48 R0
SYMATTR InstName D3
SYMATTR Value 1N4148
SYMBOL diode 368 48 R0
SYMATTR InstName D4
SYMATTR Value 1N4148
SYMBOL cap 576 0 R0
SYMATTR InstName C2
SYMATTR Value 1.2n
SYMBOL res 304 -544 R0
SYMATTR InstName R1
SYMATTR Value 1k
SYMBOL res 304 272 R0
SYMATTR InstName R2
SYMATTR Value 1k
SYMBOL res 0 -368 R0
SYMATTR InstName R3
SYMATTR Value 1k
SYMBOL res 0 -240 R0
SYMATTR InstName R4
SYMATTR Value 11k
SYMBOL res 16 80 R0
SYMATTR InstName R5
SYMATTR Value 11k
SYMBOL res 16 208 R0
SYMATTR InstName R6
SYMATTR Value 1k
SYMBOL OpAmps\\LM308 160 -320 R0
SYMATTR InstName U4
SYMBOL OpAmps\\LM308 160 128 R0
SYMATTR InstName U2
SYMBOL voltage 1168 -336 R0
WINDOW 123 0 0 Left 0
WINDOW 39 0 0 Left 0
SYMATTR InstName V2
SYMATTR Value 5
SYMBOL voltage 976 -320 R0
WINDOW 123 0 0 Left 0
WINDOW 39 0 0 Left 0
SYMATTR InstName V3
SYMATTR Value 2
SYMBOL cap 1248 -320 R0
SYMATTR InstName C3
SYMATTR Value 10n
SYMBOL Comparators\\AD8561 1120 -128 R0
SYMATTR InstName U3
SYMBOL res 720 -64 R90
WINDOW 0 0 56 VBottom 2
WINDOW 3 32 56 VTop 2
SYMATTR InstName R7
SYMATTR Value 10
SYMBOL res 896 -80 R0
SYMATTR InstName R8
SYMATTR Value 5.8k
SYMBOL res 896 32 R0
SYMATTR InstName R9
SYMATTR Value 4.2k
SYMBOL OpAmps\\AD711 752 -128 R0
SYMATTR InstName U6
TEXT -624 440 Left 2 !.tran 10m startup
